Measured thermophysical data. Isopiestic determination of the osmotic and activity coefficients of dilute aqueous solutions of the series MeEt3NI to HepEt3NI at 298.15K
Source: Fluid Phase Equilib., 2006, 10.1016/j.fluid.2006.09.025
Compound 1: methyltriethylammonium iodide, C7H18IN, InChI=1S/C7H18N.HI/c1-5-8(4,6-2)7-3;/h5-7H2,1-4H3;1H/q+1;/p-1
Compound 2: water, H2O, InChI=1S/H2O/h1H2

System: methyltriethylammonium iodide + water; phases: Liquid, Gas
Fixed: Temperature, K = 298.15
Property: Osmotic coefficient (Liquid); method: ISOPIE
Molality, mol/kg of methyltriethylammonium iodide	Osmotic coefficient	uncertainty
0.0478	0.7389	0.0131
0.0576	0.7142	0.0143
0.0766	0.673	0.0164
0.0902	0.6485	0.0176
0.0995	0.6324	0.0185
0.1505	0.5635	0.0219
0.1558	0.5562	0.0223
0.1631	0.5482	0.0227
0.1721	0.5394	0.0231
0.1879	0.5233	0.0239
0.2254	0.4881	0.0257
0.2898	0.4397	0.0281
0.324	0.4206	0.029
0.3742	0.3911	0.0305
0.4177	0.371	0.0315
0.4237	0.3683	0.0316
0.4447	0.3596	0.0321
0.4801	0.3468	0.0327
0.5528	0.3214	0.034
0.6505	0.2944	0.0353
0.6561	0.2954	0.0352
0.6693	0.2915	0.0355
0.7286	0.2795	0.0361
0.8032	0.2652	0.0368
0.8482	0.2592	0.0371
0.8851	0.2549	0.0373
0.9205	0.2495	0.0375
0.9981	0.241	0.038
1.1005	0.2318	0.0384
1.2005	0.2255	0.0387
1.2198	0.2238	0.0388
1.2501	0.2226	0.0389
1.2901	0.2202	0.039
1.3703	0.2191	0.039
