Measured thermophysical data. Vaporization enthalpies of a series of the halogen-substituted fluorobenzenes
Source: Fluid Phase Equilib., 2015, 10.1016/j.fluid.2014.12.023
Compound 1: 1-chloro-2-fluorobenzene, C6H4ClF, InChI=1S/C6H4ClF/c7-5-3-1-2-4-6(5)8/h1-4H, purity 99%

System: 1-chloro-2-fluorobenzene; phases: Liquid, Gas
Property: Molar enthalpy of vaporization or sublimation, kJ/mol (Liquid); method: Derived by Second law
Temperature, K	Molar enthalpy of vaporization or sublimation, kJ/mol	uncertainty
298.15	44	1.2
